tests/data/api_conformance.m
function mpc = api_conformance
mpc.version = '2';
mpc.baseMVA = 100;

mpc.bus = [
    1 3  0  0 0 0 1 1.0 0 230 1 1.1 0.9;
    2 1 30 10 0 0 1 1.0 0 230 1 1.1 0.9;
    3 1 20  5 0 0 1 1.0 0 230 1 1.1 0.9;
];

mpc.gen = [
    1 25 0 30 -30 1.0 100 1 100 0;
    1 15 0 20 -20 1.0 100 1  80 0;
];

mpc.branch = [
    1 2 0.01 0.1 0 250 250 250 0  0 1 -30 30;
    1 3 0.02 0.2 0 250 250 250 0 10 1 -30 30;
];

mpc.gencost = [
    2 0 0 3 0.01 1.0 0;
    2 0 0 3 0.02 0.5 0;
];
